<?xml version="1.0" encoding="UTF-8"?>

<!-- generated on 2026-07-07T22:02:42.822275+05:30 by Eclipse SUMO netconvert 1.27.1
<netconvertConfiguration xmlns:xsi="http://www.w3.org/2001/XMLSchema-instance" xsi:noNamespaceSchemaLocation="http://sumo.dlr.de/xsd/netconvertConfiguration.xsd">

    <input>
        <osm-files value="simulation/karnataka_corridor.osm"/>
    </input>

    <output>
        <output-file value="simulation/karnataka.net.xml"/>
    </output>

    <projection>
        <proj.utm value="true"/>
    </projection>

    <processing>
        <geometry.remove value="true"/>
    </processing>

    <tls_building>
        <tls.guess value="true"/>
    </tls_building>

    <ramp_guessing>
        <ramps.guess value="true"/>
    </ramp_guessing>

    <junctions>
        <junctions.join value="true"/>
    </junctions>

</netconvertConfiguration>
-->

<net version="1.20" junctionCornerDetail="5" limitTurnSpeed="5.50" xmlns:xsi="http://www.w3.org/2001/XMLSchema-instance" xsi:noNamespaceSchemaLocation="http://sumo.dlr.de/xsd/net_file.xsd">

    <location netOffset="-774714.71,-1435426.41" convBoundary="0.00,0.00,6766.31,20897.75" origBoundary="77.534200,12.971600,77.594600,13.161000" projParameter="+proj=utm +zone=43 +ellps=WGS84 +datum=WGS84 +units=m +no_defs"/>

    <type id="highway.trunk" priority="13" numLanes="2" speed="27.78" disallow="pedestrian bicycle tram rail_urban rail rail_electric rail_fast ship container cable_car subway aircraft wheelchair scooter drone" oneway="0"/>

    <edge id=":1_0" function="internal">
        <lane id=":1_0_0" index="0" disallow="pedestrian bicycle tram rail_urban rail rail_electric rail_fast ship container cable_car subway aircraft wheelchair scooter drone" speed="3.65" length="4.67" shape="1.58,20897.98 0.62,20899.05 -0.23,20899.33 -0.97,20898.82 -1.58,20897.52"/>
    </edge>
    <edge id=":3_0" function="internal">
        <lane id=":3_0_0" index="0" disallow="pedestrian bicycle tram rail_urban rail rail_electric rail_fast ship container cable_car subway aircraft wheelchair scooter drone" speed="3.65" length="4.67" shape="6765.18,-1.13 6766.60,-1.41 6767.44,-1.13 6767.73,-0.28 6767.44,1.13"/>
    </edge>

    <edge id="-101" from="3" to="1" priority="13" type="highway.trunk" shape="6766.31,0.00 2445.80,4295.71 0.00,20897.75">
        <lane id="-101_0" index="0" disallow="pedestrian bicycle tram rail_urban rail rail_electric rail_fast ship container cable_car subway aircraft wheelchair scooter drone" speed="27.78" length="22871.71" shape="6769.69,3.40 2450.32,4297.99 4.75,20898.45"/>
        <lane id="-101_1" index="1" disallow="pedestrian bicycle tram rail_urban rail rail_electric rail_fast ship container cable_car subway aircraft wheelchair scooter drone" speed="27.78" length="22871.71" shape="6767.44,1.13 2447.31,4296.47 1.58,20897.98"/>
    </edge>
    <edge id="101" from="1" to="3" priority="13" type="highway.trunk" shape="0.00,20897.75 2445.80,4295.71 6766.31,0.00">
        <lane id="101_0" index="0" disallow="pedestrian bicycle tram rail_urban rail rail_electric rail_fast ship container cable_car subway aircraft wheelchair scooter drone" speed="27.78" length="22875.97" shape="-4.75,20897.05 2441.28,4293.43 6762.93,-3.40"/>
        <lane id="101_1" index="1" disallow="pedestrian bicycle tram rail_urban rail rail_electric rail_fast ship container cable_car subway aircraft wheelchair scooter drone" speed="27.78" length="22875.97" shape="-1.58,20897.52 2444.29,4294.95 6765.18,-1.13"/>
    </edge>

    <junction id="1" type="priority" x="0.00" y="20897.75" incLanes="-101_0 -101_1" intLanes=":1_0_0" shape="0.00,20897.75 6.33,20898.68 0.00,20897.75">
        <request index="0" response="0" foes="0" cont="0"/>
    </junction>
    <junction id="3" type="priority" x="6766.31" y="0.00" incLanes="101_0 101_1" intLanes=":3_0_0" shape="6766.31,0.00 6761.80,-4.54 6766.31,0.00">
        <request index="0" response="0" foes="0" cont="0"/>
    </junction>

    <connection from="-101" to="101" fromLane="1" toLane="1" via=":1_0_0" dir="t" state="M"/>
    <connection from="101" to="-101" fromLane="1" toLane="1" via=":3_0_0" dir="t" state="M"/>

    <connection from=":1_0" to="101" fromLane="0" toLane="1" dir="t" state="M"/>
    <connection from=":3_0" to="-101" fromLane="0" toLane="1" dir="t" state="M"/>

</net>
